
**** 08/05/20 12:19:39 ******* PSpice 17.4.0 (Nov 2018) ******* ID# 0 ********

 ** Profile: "SCHEMATIC1-SimuRuidoDC"  [ C:\Users\joshu\OneDrive\Escritorio\ModComT\ModCom\SimulaicionesOrcad\SimulacionADCConRuido\S


 ****     CIRCUIT DESCRIPTION


******************************************************************************




** Creating circuit file "SimuRuidoDC.cir" 
** WARNING: THIS AUTOMATICALLY GENERATED FILE MAY BE OVERWRITTEN BY SUBSEQUENT SIMULATIONS

*Libraries: 
* Profile Libraries :
* Local Libraries :
* From [PSPICE NETLIST] section of C:\Users\joshu\AppData\Roaming\SPB_Data\cdssetup\OrCAD_PSpice\17.4.0\PSpice.ini file:
.lib "nom.lib" 

*Analysis directives: 
.TRAN  0 100ms 0 
.OPTIONS ADVCONV
.PROBE64 V(alias(*)) I(alias(*)) W(alias(*)) D(alias(*)) NOISE(alias(*)) 
.INC "..\SCHEMATIC1.net" 



**** INCLUDING SCHEMATIC1.net ****
* source SIMULACIONADCRUIDOSCHEMA
R_R1         0 N00067  1k TC=0,0 
V_V1         N00067 N00278 RND-0.5
---------------------------$
ERROR -- Expecting keyword STIMULUS, saw RND-0.5.

V_V2         N00278 0 5

**** RESUMING SimuRuidoDC.cir ****
.END
